*SOILS: SOIL file

*TX10026628  INST         Cl      200 INST TX10026628          
@SITE        COUNTRY          LAT     LONG SCS FAMILY 
  -99        Country      -33.375  -53.375 Generic           
@ SCOM  SALB  SLU1  SLDR  SLRO  SLNF  SLPF  SMHB  SMPX  SMKE
   -99  0.13   8.4  0.50  76.0  1.00  1.00   -99   -99   -99
@  SLB  SLMH  SLLL  SDUL  SSAT  SRGF  SSKS  SBDM  SLOC  SLCL  SLSI  SLCF  SLNI  SLHW  SLHB  SCEC  SADC
     0   -99 0.131 0.251 0.415  1.00   -99   1.5   1.0  20.7   -99  47.7   -99   -99   -99   -99   -99
    10   -99 0.131 0.251 0.415  0.95   -99   1.5   1.0  20.7   -99  47.8   -99   -99   -99   -99   -99
    30   -99 0.139 0.261 0.417  0.82   -99   1.5   1.0  22.1   -99  46.2   -99   -99   -99   -99   -99
    60   -99 0.180 0.304 0.428  0.64   -99   1.5   1.0  29.1   -99  41.7   -99   -99   -99   -99   -99
   100   -99 0.194 0.320 0.433  0.41   -99   1.5   1.0  31.7   -99  40.3   -99   -99   -99   -99   -99
   200   -99 0.191 0.317 0.433  0.20   -99   1.5   1.0  31.1   -99  40.4   -99   -99   -99   -99   -99


